Version 4
SHEET 1 2980 696
WIRE 1680 -176 1616 -176
WIRE 1808 -176 1760 -176
WIRE 336 -144 256 -144
WIRE 1616 -96 1616 -176
WIRE 1648 -96 1616 -96
WIRE 1808 -48 1808 -176
WIRE 1808 -48 1792 -48
WIRE 1984 -48 1808 -48
WIRE 912 -16 912 -48
WIRE 944 -16 912 -16
WIRE 1296 0 1248 0
WIRE 1648 0 1440 0
WIRE 912 16 912 -16
WIRE 1680 64 1616 64
WIRE 1824 64 1760 64
WIRE 1616 144 1616 64
WIRE 1648 144 1616 144
WIRE 1008 160 944 160
WIRE 1248 160 1248 0
WIRE 1248 160 1152 160
WIRE 1984 160 1984 -48
WIRE 2032 160 1984 160
WIRE 1824 192 1824 64
WIRE 1824 192 1792 192
WIRE 2032 192 1824 192
WIRE 944 208 944 160
WIRE 944 208 880 208
WIRE 2528 208 2176 208
WIRE 2032 224 1984 224
WIRE 1008 240 880 240
WIRE 1296 240 1152 240
WIRE 1648 240 1440 240
WIRE 2032 256 2016 256
WIRE 256 272 256 -144
WIRE 768 272 256 272
WIRE 944 272 880 272
WIRE 1680 304 1616 304
WIRE 1824 304 1760 304
WIRE 2016 304 2016 256
WIRE 944 320 944 272
WIRE 1008 320 944 320
WIRE 1248 320 1152 320
WIRE 1616 384 1616 304
WIRE 1648 384 1616 384
WIRE 1824 432 1824 304
WIRE 1824 432 1792 432
WIRE 1984 432 1984 224
WIRE 1984 432 1824 432
WIRE 1248 480 1248 320
WIRE 1296 480 1248 480
WIRE 1648 480 1440 480
FLAG 944 -16 0
FLAG 912 96 Vee
FLAG 912 -128 Vcc
FLAG 336 96 0
FLAG 768 208 Vcc
FLAG 768 240 Vee
FLAG 1648 -64 Vcc
FLAG 1648 176 Vcc
FLAG 1648 416 Vcc
FLAG 1648 448 Vee
FLAG 1648 -32 Vee
FLAG 1648 208 Vee
FLAG 2016 304 0
SYMBOL voltage 912 -144 R0
WINDOW 123 0 0 Left 0
WINDOW 39 0 0 Left 0
SYMATTR InstName V1
SYMATTR Value 15
SYMBOL voltage 912 0 R0
WINDOW 123 0 0 Left 0
WINDOW 39 0 0 Left 0
SYMATTR InstName V2
SYMATTR Value 15
SYMBOL voltage 336 -160 R0
WINDOW 123 0 0 Left 0
WINDOW 39 0 0 Left 0
SYMATTR InstName V3
SYMATTR Value SINE(0 1 1)
SYMBOL voltage 336 -80 R0
WINDOW 0 24 16 Left 0
WINDOW 123 0 0 Left 0
WINDOW 39 0 0 Left 0
SYMATTR InstName V4
SYMATTR Value SINE(0 1 10 0)
SYMBOL voltage 336 0 R0
WINDOW 0 24 16 Left 0
WINDOW 123 0 0 Left 0
WINDOW 39 0 0 Left 0
SYMATTR InstName V5
SYMATTR Value SINE(0 1 50 0)
SYMBOL splitter3 816 240 R0
WINDOW 0 8 -56 Invisible 2
SYMATTR InstName X5
SYMBOL vga 1712 -48 R0
WINDOW 0 8 -72 Invisible 2
SYMATTR InstName X14
SYMBOL vga 1712 432 R0
WINDOW 0 8 -72 Invisible 2
SYMATTR InstName X15
SYMBOL vga 1712 192 R0
WINDOW 0 8 -72 Invisible 2
SYMATTR InstName X16
SYMBOL res 1776 -192 R90
WINDOW 0 0 56 VBottom 2
WINDOW 3 32 56 VTop 4
SYMATTR InstName Gain_of_1Hz/1k
SYMATTR Value 3k
SYMBOL res 1776 48 R90
WINDOW 0 0 56 VBottom 2
WINDOW 3 32 56 VTop 4
SYMATTR InstName Gain_of_10Hz/1k
SYMATTR Value 1k
SYMATTR SpiceLine tol=1 pwr=0.1
SYMBOL res 1776 288 R90
WINDOW 0 0 56 VBottom 2
WINDOW 3 32 56 VTop 4
SYMATTR InstName Gain_of_50Hz/1k
SYMATTR Value 1k
SYMBOL 10Hz 1072 240 R0
WINDOW 0 8 -24 Invisible 2
SYMATTR InstName X1
SYMBOL 10Hz 1360 240 R0
WINDOW 0 8 -24 Invisible 2
SYMATTR InstName X2
SYMBOL 1Hz 1072 160 R0
WINDOW 0 8 -24 Invisible 2
SYMATTR InstName X6
SYMBOL 1Hz 1360 0 R0
WINDOW 0 8 -24 Invisible 2
SYMATTR InstName X7
SYMBOL 50Hz_new 1072 320 R0
WINDOW 0 8 -24 Invisible 2
SYMATTR InstName X3
SYMBOL 50Hz_new 1360 480 R0
WINDOW 0 8 -24 Invisible 2
SYMATTR InstName X4
SYMBOL adder 2096 208 R0
WINDOW 0 8 -72 Invisible 2
SYMATTR InstName X8
