Version 4.1
SHEET 1 912 680
WIRE 208 -32 192 -32
WIRE 304 -32 288 -32
WIRE 208 48 192 48
WIRE 304 48 272 48
WIRE -32 128 -32 32
WIRE -32 128 -64 128
WIRE -176 144 -192 144
WIRE -160 144 -176 144
WIRE -64 144 -64 128
WIRE -64 144 -80 144
WIRE 48 144 48 32
WIRE 48 144 32 144
WIRE 96 144 48 144
WIRE 192 144 192 48
WIRE 192 144 176 144
WIRE 208 144 192 144
WIRE 304 160 304 48
WIRE 304 160 272 160
WIRE 336 160 304 160
WIRE 416 160 416 64
WIRE 496 176 496 64
WIRE 496 176 480 176
WIRE 528 176 496 176
WIRE -32 336 -48 336
WIRE -32 432 -32 336
FLAG -32 432 0
FLAG 208 176 0
FLAG 48 336 vcc
FLAG 240 128 vcc
FLAG -128 336 vee
FLAG 240 192 vee
FLAG 416 192 0
FLAG 448 144 vcc
FLAG 448 208 vee
FLAG -32 160 0
FLAG 0 112 vcc
FLAG 0 176 vee
FLAG -176 144 in
FLAG 528 176 out
SYMBOL OpAmps\\OP07 240 96 R0
SYMATTR InstName U1
SYMBOL voltage 64 336 R90
WINDOW 123 0 0 Left 0
WINDOW 39 0 0 Left 0
SYMATTR InstName V1
SYMATTR Value 15
SYMBOL voltage -32 336 R90
WINDOW 123 0 0 Left 0
WINDOW 39 0 0 Left 0
SYMATTR InstName V2
SYMATTR Value 15
SYMBOL res 192 128 R90
WINDOW 0 0 56 VBottom 2
WINDOW 3 32 56 VTop 2
SYMATTR InstName R1
SYMATTR Value 0.4g
SYMBOL diode 208 64 R270
WINDOW 0 32 32 VTop 2
WINDOW 3 0 32 VBottom 2
SYMATTR InstName D1
SYMATTR Value 1N914
SYMBOL OpAmps\\OP07 448 112 R0
SYMATTR InstName U2
SYMBOL res 432 144 R90
WINDOW 0 0 56 VBottom 2
WINDOW 3 32 56 VTop 2
SYMATTR InstName R2
SYMATTR Value 1k
SYMBOL res 512 48 R90
WINDOW 0 0 56 VBottom 2
WINDOW 3 32 56 VTop 2
SYMATTR InstName R3
SYMATTR Value 1k
SYMBOL OpAmps\\OP07 0 80 R0
SYMATTR InstName U3
SYMBOL res -64 128 R90
WINDOW 0 0 56 VBottom 2
WINDOW 3 32 56 VTop 2
SYMATTR InstName R4
SYMATTR Value 1k
SYMBOL res 64 16 R90
WINDOW 0 0 56 VBottom 2
WINDOW 3 32 56 VTop 2
SYMATTR InstName R5
SYMATTR Value 100
SYMBOL FuncGen_1 -288 192 R0
SYMATTR InstName X2
TEXT -448 0 Left 2 !.tran 0 15 10
