Version 4.1
SHEET 1 2488 876
WIRE -560 -112 -560 -128
WIRE -496 -112 -560 -112
WIRE -560 -96 -560 -112
WIRE 288 0 -192 0
WIRE 288 16 288 0
WIRE 336 16 288 16
WIRE 464 16 416 16
WIRE 2192 80 2176 80
WIRE 2320 80 2272 80
WIRE -192 96 -192 0
WIRE -192 96 -400 96
WIRE -160 96 -192 96
WIRE 144 96 -32 96
WIRE 464 112 464 16
WIRE 544 112 464 112
WIRE 144 128 144 96
WIRE 336 128 144 128
WIRE 432 128 416 128
WIRE 432 144 432 128
WIRE 544 144 432 144
WIRE 2160 144 2144 144
WIRE 752 160 672 160
WIRE 1216 160 1200 160
WIRE 544 176 464 176
WIRE 1296 176 1296 160
WIRE 1312 176 1296 176
WIRE 2160 176 2160 144
WIRE 2176 176 2176 80
WIRE 2176 176 2160 176
WIRE 2208 176 2176 176
WIRE 1520 192 1520 176
WIRE 1536 192 1520 192
WIRE 1776 192 1664 192
WIRE 1936 192 1904 192
WIRE 2320 192 2320 80
WIRE 2320 192 2272 192
WIRE 2352 192 2320 192
WIRE 336 208 144 208
WIRE 464 208 464 176
WIRE 464 208 416 208
WIRE 544 208 496 208
WIRE 1936 208 1936 192
WIRE 1984 208 1936 208
WIRE 2208 208 1984 208
WIRE -192 240 -416 240
WIRE -160 240 -192 240
WIRE 144 240 144 208
WIRE 144 240 -32 240
WIRE 1296 288 1296 176
WIRE 1312 288 1296 288
WIRE 1328 288 1312 288
WIRE 1440 288 1440 176
WIRE 1440 288 1408 288
WIRE 336 336 288 336
WIRE 496 336 496 208
WIRE 496 336 416 336
WIRE 1312 336 1312 288
WIRE 1504 336 1312 336
WIRE 1984 336 1984 208
WIRE 1984 336 1584 336
WIRE -192 384 -192 240
WIRE 288 384 288 336
WIRE 288 384 -192 384
WIRE 2048 384 2048 368
WIRE 2240 384 2048 384
WIRE 2048 416 2048 384
WIRE 2240 416 2240 384
WIRE 176 496 80 496
WIRE 176 512 176 496
WIRE 352 512 176 512
WIRE 560 512 432 512
WIRE 176 592 96 592
WIRE 352 592 192 592
WIRE 512 592 432 592
WIRE 192 624 192 592
WIRE 192 624 96 624
WIRE 560 624 560 512
WIRE 592 624 560 624
WIRE -112 640 -240 640
WIRE 192 656 96 656
WIRE 512 656 512 592
WIRE 592 656 512 656
WIRE 1040 672 720 672
WIRE 176 688 96 688
WIRE 192 688 192 656
WIRE 352 688 192 688
WIRE 592 688 432 688
WIRE 592 720 512 720
WIRE 176 800 176 688
WIRE 352 800 176 800
WIRE 512 800 512 720
WIRE 512 800 432 800
FLAG -496 -112 0
FLAG -560 -208 vcc
FLAG -528 80 vcc
FLAG -544 224 vcc
FLAG -560 -16 vee
FLAG -528 112 vee
FLAG -544 256 vee
FLAG -112 64 vcc
FLAG -112 128 vee
FLAG -112 272 vee
FLAG -112 208 vcc
FLAG -96 -128 0
FLAG -96 -208 off
FLAG 576 -144 0
FLAG 576 -224 on
FLAG -240 720 0
FLAG -48 480 vcc
FLAG -48 512 vee
FLAG 400 528 on
FLAG 400 608 on
FLAG 400 704 off
FLAG 400 816 off
FLAG 384 144 on
FLAG 384 224 on
FLAG 384 32 off
FLAG 384 352 off
FLAG 2240 416 0
FLAG 2048 288 Vcc
FLAG 2048 496 Vee
FLAG 1856 176 Vcc
FLAG 1840 224 Vee
FLAG 1584 160 Vcc
FLAG 1584 224 Vee
FLAG 1360 144 Vcc
FLAG 1360 208 Vee
FLAG 1200 160 in
FLAG 2064 144 0
FLAG 2240 160 Vcc
FLAG 2240 224 Vee
FLAG 2352 192 out
SYMBOL wein_bridge1 -480 240 R0
SYMATTR InstName frequency2
SYMBOL input_3 -464 96 R0
SYMATTR InstName frequency1
SYMBOL voltage -560 -224 R0
WINDOW 123 0 0 Left 0
WINDOW 39 0 0 Left 0
SYMATTR InstName V1
SYMATTR Value 15
SYMBOL voltage -560 -112 R0
WINDOW 123 0 0 Left 0
WINDOW 39 0 0 Left 0
SYMATTR InstName V2
SYMATTR Value 15
SYMBOL schmitt_trigger -112 96 R0
SYMATTR InstName X2
SYMBOL schmitt_trigger -112 240 R0
SYMATTR InstName X3
SYMBOL Voltage_controlled_switch_1 384 16 R0
SYMATTR InstName X4
SYMBOL Voltage_controlled_switch_1 384 128 R0
WINDOW 0 -5 -29 Bottom 2
SYMATTR InstName X5
SYMBOL Voltage_controlled_switch_1 384 208 R0
WINDOW 0 -94 -10 Bottom 2
SYMATTR InstName X6
SYMBOL Voltage_controlled_switch_1 384 336 R0
SYMATTR InstName X7
SYMBOL voltage -96 -224 R0
WINDOW 123 0 0 Left 0
WINDOW 39 0 0 Left 0
SYMATTR InstName V3
SYMATTR Value -10
SYMBOL voltage 576 -240 R0
WINDOW 123 0 0 Left 0
WINDOW 39 0 0 Left 0
SYMATTR InstName V4
SYMATTR Value 10
SYMBOL generator_symbol -16 640 R0
SYMATTR InstName func_gen
SYMBOL voltage -240 624 R0
WINDOW 123 0 0 Left 0
WINDOW 39 0 0 Left 0
SYMATTR InstName V5
SYMATTR Value 10
SYMBOL Voltage_controlled_switch_1 400 512 R0
SYMATTR InstName X9
SYMBOL Voltage_controlled_switch_1 400 592 R0
WINDOW 0 -12 -16 Bottom 2
SYMATTR InstName X10
SYMBOL Voltage_controlled_switch_1 400 688 R0
WINDOW 0 -7 -21 Bottom 2
SYMATTR InstName X11
SYMBOL Voltage_controlled_switch_1 400 800 R0
SYMATTR InstName X12
SYMBOL input_3 16 496 R0
SYMATTR InstName Sine_low_freq
SYMBOL Adder 656 672 R0
SYMATTR InstName adder2
SYMBOL Adder 608 160 R0
SYMATTR InstName Adder1
SYMBOL voltage 2048 272 R0
WINDOW 123 0 0 Left 0
WINDOW 39 0 0 Left 0
SYMATTR InstName V6
SYMATTR Value 15
SYMBOL voltage 2048 400 R0
WINDOW 123 0 0 Left 0
WINDOW 39 0 0 Left 0
SYMATTR InstName V7
SYMATTR Value 15
SYMBOL res 1312 144 R90
WINDOW 0 0 56 VBottom 2
WINDOW 3 32 56 VTop 2
SYMATTR InstName R1
SYMATTR Value 1k
SYMBOL res 1536 160 R90
WINDOW 0 0 56 VBottom 2
WINDOW 3 32 56 VTop 2
SYMATTR InstName R2
SYMATTR Value 10k
SYMBOL res 1424 272 R90
WINDOW 0 0 56 VBottom 2
WINDOW 3 32 56 VTop 2
SYMATTR InstName R3
SYMATTR Value {a1}
SYMBOL res 1600 320 R90
WINDOW 0 0 56 VBottom 2
WINDOW 3 32 56 VTop 2
SYMATTR InstName R4
SYMATTR Value {a0}
SYMBOL invertor 1840 208 R0
SYMATTR InstName Invertor1
SYMBOL inte1 1584 192 R0
SYMATTR InstName Integrator_1
SYMBOL inte1 1360 176 R0
SYMATTR InstName Integrator_2
SYMBOL OpAmps\\OP07 2240 128 R0
SYMATTR InstName U1
SYMBOL res 2160 128 R90
WINDOW 0 0 56 VBottom 2
WINDOW 3 32 56 VTop 2
SYMATTR InstName R5
SYMATTR Value 1k
SYMBOL res 2288 64 R90
WINDOW 0 0 56 VBottom 2
WINDOW 3 32 56 VTop 2
SYMATTR InstName R6
SYMATTR Value 9k
TEXT 424 -24 Left 2 !.tran 0 1 65m
TEXT 1200 448 Left 2 !.param a0=2k
TEXT 1208 488 Left 2 !.param a1=666.66
TEXT 312 -80 Left 2 ;voltage_switch
