Version 4.1
SHEET 1 2276 680
WIRE 32 -192 -48 -192
WIRE 112 -192 32 -192
WIRE -48 -144 -48 -192
WIRE 32 -144 32 -192
WIRE 112 -144 112 -192
WIRE 1200 -48 1152 -48
WIRE 1344 -48 1280 -48
WIRE -48 -32 -48 -64
WIRE -16 -32 -48 -32
WIRE 112 -32 112 -64
WIRE 112 -32 80 -32
WIRE -48 0 -48 -32
WIRE 112 0 112 -32
WIRE 784 32 784 0
WIRE -112 48 -176 48
WIRE 224 48 176 48
WIRE 448 48 384 48
WIRE 576 48 528 48
WIRE 752 48 576 48
WIRE -1088 64 -1088 16
WIRE -960 64 -1088 64
WIRE 912 64 864 64
WIRE 1056 64 912 64
WIRE 1152 64 1152 -48
WIRE 1152 64 1136 64
WIRE 1200 64 1152 64
WIRE 224 80 224 48
WIRE 576 80 576 48
WIRE 1344 80 1344 -48
WIRE 1344 80 1264 80
WIRE 1440 80 1344 80
WIRE 1568 80 1440 80
WIRE -1088 96 -1088 64
WIRE -960 96 -960 64
WIRE 752 96 672 96
WIRE -320 112 -352 112
WIRE -560 128 -736 128
WIRE 784 160 784 112
WIRE -304 176 -352 176
WIRE 576 176 576 160
WIRE -48 192 -48 96
WIRE 32 192 -48 192
WIRE 112 192 112 96
WIRE 112 192 32 192
WIRE -736 224 -736 208
WIRE -96 224 -208 224
WIRE -96 240 -96 224
WIRE 32 256 32 192
WIRE 160 256 32 256
WIRE 480 272 432 272
WIRE 672 272 672 96
WIRE 672 272 560 272
WIRE -16 320 -96 320
WIRE -96 336 -96 320
WIRE 160 336 160 256
WIRE 672 336 672 272
WIRE 736 336 672 336
WIRE 912 336 912 64
WIRE 912 336 816 336
WIRE -16 384 -16 320
WIRE -16 384 -32 384
WIRE 96 384 -16 384
WIRE -96 480 -96 432
WIRE 160 480 160 432
WIRE 160 480 -96 480
WIRE 176 480 160 480
WIRE 176 528 176 480
FLAG 224 80 0
FLAG 176 528 0
FLAG -16 -32 in+
FLAG 80 -32 in-
FLAG 576 176 0
FLAG -960 96 0
FLAG -1088 -64 vcc
FLAG -1088 176 vee
FLAG 784 0 vcc
FLAG 784 160 vee
FLAG 32 -144 vcc
FLAG 384 48 in+
FLAG 432 272 in-
FLAG 1200 96 0
FLAG 1232 48 vcc
FLAG 1232 112 vee
FLAG -176 48 a
FLAG -736 224 0
FLAG -320 112 a
FLAG -304 176 b
FLAG -208 224 b
FLAG 1440 80 out
SYMBOL npn -112 0 R0
SYMATTR InstName Q1
SYMATTR Value 2N2222
SYMBOL npn 176 0 M0
SYMATTR InstName Q3
SYMATTR Value 2N2222
SYMBOL npn -32 336 M0
SYMATTR InstName Q2
SYMATTR Value 2N2222
SYMBOL npn 96 336 R0
SYMATTR InstName Q4
SYMATTR Value 2N2222
SYMBOL res -64 -160 R0
SYMATTR InstName R1
SYMATTR Value 200
SYMBOL res 96 -160 R0
SYMATTR InstName R2
SYMATTR Value 200
SYMBOL res -112 224 R0
SYMATTR InstName R3
SYMATTR Value 1k
SYMBOL TLV930x\\tlv9302 864 64 R0
SYMATTR InstName U1
SYMBOL res 544 32 R90
WINDOW 0 0 56 VBottom 2
WINDOW 3 32 56 VTop 2
SYMATTR InstName R4
SYMATTR Value 10k
SYMBOL res 832 320 R90
WINDOW 0 0 56 VBottom 2
WINDOW 3 32 56 VTop 2
SYMATTR InstName R5
SYMATTR Value 20k
SYMBOL res 576 256 R90
WINDOW 0 0 56 VBottom 2
WINDOW 3 32 56 VTop 2
SYMATTR InstName R6
SYMATTR Value 10k
SYMBOL res 592 176 R180
WINDOW 0 36 76 Left 2
WINDOW 3 36 40 Left 2
SYMATTR InstName R7
SYMATTR Value 20k
SYMBOL voltage -1088 -80 R0
WINDOW 123 0 0 Left 0
WINDOW 39 0 0 Left 0
SYMATTR InstName V3
SYMATTR Value 15
SYMBOL voltage -1088 80 R0
WINDOW 123 0 0 Left 0
WINDOW 39 0 0 Left 0
SYMATTR InstName V4
SYMATTR Value 15
SYMBOL OpAmps\\OP07 1232 16 R0
SYMATTR InstName U2
SYMBOL res 1152 48 R90
WINDOW 0 0 56 VBottom 2
WINDOW 3 32 56 VTop 2
SYMATTR InstName R9
SYMATTR Value 1k
SYMBOL res 1296 -64 R90
WINDOW 0 0 56 VBottom 2
WINDOW 3 32 56 VTop 2
SYMATTR InstName R10
SYMATTR Value 10k
SYMBOL generator_symbol -464 128 R0
SYMATTR InstName X3
SYMBOL voltage -736 112 R0
WINDOW 3 -70 50 Left 2
WINDOW 123 0 0 Left 0
WINDOW 39 0 0 Left 0
SYMATTR Value 10
SYMATTR InstName V2
TEXT -704 368 Left 2 !.tran 0 150m 65m
